<?xml version="1.0" encoding="UTF-8"?>

<!-- generated on 2025-05-13 11:06:06 by Eclipse SUMO sumo Version 1.22.0
-->

<sumoConfiguration xmlns:xsi="http://www.w3.org/2001/XMLSchema-instance" xsi:noNamespaceSchemaLocation="http://sumo.dlr.de/xsd/sumoConfiguration.xsd">

    <input>
        <net-file value="croisement_trafic_light.net.xml"/>
        <route-files value="croisement_trafic_light.rou.xml"/>
    </input>

</sumoConfiguration>
