<?xml version="1.0" encoding="UTF-8"?>
<nodes xmlns:xsi="http://www.w3.org/2001/XMLSchema-instance" xsi:noNamespaceSchemaLocation="http://sumo.dlr.de/xsd/nodes_file.xsd">
    <node id="intersection_1" x="0" y="0" type="traffic_light"/>
    <node id="intersection_2" x="500" y="0" type="traffic_light"/>
    <node id="intersection_3" x="250" y="433" type="traffic_light"/>
    
    <node id="north_1" x="0" y="200" type="priority"/>
    <node id="south_1" x="0" y="-200" type="priority"/>
    <node id="east_1" x="-200" y="0" type="priority"/>
    <node id="west_1" x="200" y="0" type="priority"/>
    
    <node id="north_2" x="500" y="200" type="priority"/>
    <node id="south_2" x="500" y="-200" type="priority"/>
    <node id="east_2" x="300" y="0" type="priority"/>
    <node id="west_2" x="700" y="0" type="priority"/>
    
    <node id="north_3" x="250" y="633" type="priority"/>
    <node id="south_3" x="250" y="233" type="priority"/>
    <node id="east_3" x="50" y="433" type="priority"/>
    <node id="west_3" x="450" y="433" type="priority"/>
</nodes>