<?xml version="1.0" encoding="UTF-8"?>
<routes xmlns:xsi="http://www.w3.org/2001/XMLSchema-instance" xsi:noNamespaceSchemaLocation="http://sumo.dlr.de/xsd/routes_file.xsd">
    <!-- Vehicle types -->
    <vType id="passenger" accel="2.6" decel="4.5" sigma="0.5" length="5" maxSpeed="50"/>
    
    <!-- Routes through the network -->
    <route id="north_south_1" edges="north_1_to_int1 int1_to_south_1"/>
    <route id="east_west_1" edges="east_1_to_int1 int1_to_west_1"/>
    <route id="north_south_2" edges="north_2_to_int2 int2_to_south_2"/>
    <route id="east_west_2" edges="east_2_to_int2 int2_to_west_2"/>
    <route id="north_south_3" edges="north_3_to_int3 int3_to_south_3"/>
    <route id="east_west_3" edges="east_3_to_int3 int3_to_west_3"/>
    
    <!-- Inter-intersection routes -->
    <route id="int1_to_int2_route" edges="north_1_to_int1 int1_to_int2 int2_to_south_2"/>
    <route id="int2_to_int3_route" edges="north_2_to_int2 int2_to_int3 int3_to_south_3"/>
    <route id="int3_to_int1_route" edges="north_3_to_int3 int3_to_int1 int1_to_south_1"/>
    
    <!-- Traffic flows -->
    <flow id="flow_ns1" route="north_south_1" begin="0" end="1200" vehsPerHour="300" type="passenger"/>
    <flow id="flow_ew1" route="east_west_1" begin="0" end="1200" vehsPerHour="200" type="passenger"/>
    <flow id="flow_ns2" route="north_south_2" begin="0" end="1200" vehsPerHour="250" type="passenger"/>
    <flow id="flow_ew2" route="east_west_2" begin="0" end="1200" vehsPerHour="180" type="passenger"/>
    <flow id="flow_ns3" route="north_south_3" begin="0" end="1200" vehsPerHour="200" type="passenger"/>
    <flow id="flow_ew3" route="east_west_3" begin="0" end="1200" vehsPerHour="150" type="passenger"/>
    
    <!-- Inter-intersection flows -->
    <flow id="flow_12" route="int1_to_int2_route" begin="0" end="1200" vehsPerHour="100" type="passenger"/>
    <flow id="flow_23" route="int2_to_int3_route" begin="0" end="1200" vehsPerHour="80" type="passenger"/>
    <flow id="flow_31" route="int3_to_int1_route" begin="0" end="1200" vehsPerHour="90" type="passenger"/>
</routes>