<?xml version="1.0" ?>
<additionalFile xmlns:xsi="http://www.w3.org/2001/XMLSchema-instance" xsi:noNamespaceSchemaLocation="http://sumo.dlr.de/xsd/additional_file.xsd">
    <tlLogic id="intersection_1" type="static" programID="0" offset="0">
        <phase duration="30" state="GGrrGGrr"/>
        <phase duration="5" state="yyrryyRr"/>
        <phase duration="30" state="rrGGrrGG"/>
        <phase duration="5" state="rryyrryy"/>
    </tlLogic>
    <tlLogic id="intersection_2" type="static" programID="0" offset="0">
        <phase duration="30" state="GGrrGGrr"/>
        <phase duration="5" state="yyrryyRr"/>
        <phase duration="30" state="rrGGrrGG"/>
        <phase duration="5" state="rryyrryy"/>
    </tlLogic>
    <tlLogic id="intersection_3" type="static" programID="0" offset="0">
        <phase duration="30" state="GGrrGGrr"/>
        <phase duration="5" state="yyrryyRr"/>
        <phase duration="30" state="rrGGrrGG"/>
        <phase duration="5" state="rryyrryy"/>
    </tlLogic>
</additionalFile>